Version 4
SHEET 1 1628 904
WIRE 320 -592 32 -592
WIRE 320 -560 320 -592
WIRE -224 -432 -400 -432
WIRE -96 -432 -224 -432
WIRE 32 -432 32 -592
WIRE 32 -432 -96 -432
WIRE 144 -432 32 -432
WIRE -96 -400 -96 -432
WIRE -32 -400 -96 -400
WIRE 144 -400 144 -432
WIRE 240 -400 144 -400
WIRE -96 -384 -96 -400
WIRE 144 -384 144 -400
WIRE -96 -336 -112 -336
WIRE -32 -336 -32 -400
WIRE -32 -336 -96 -336
WIRE 240 -336 240 -400
WIRE 240 -336 144 -336
WIRE -144 -240 -144 -304
WIRE 16 -240 -144 -240
WIRE 96 -240 96 -304
WIRE 96 -240 16 -240
WIRE 144 -192 144 -288
WIRE -96 -176 -96 -288
WIRE -224 -128 -224 -432
WIRE -96 -128 -224 -128
WIRE 128 -128 128 -144
WIRE 128 -128 -96 -128
WIRE -144 -64 -144 -96
WIRE -144 -64 -288 -64
WIRE -288 -48 -288 -64
WIRE -144 -48 -144 -64
WIRE 96 -48 96 -112
WIRE 96 -48 -144 -48
WIRE 144 -48 144 -96
WIRE 432 -48 144 -48
WIRE 704 -48 432 -48
WIRE -96 -16 -96 -80
WIRE 16 -16 16 -240
WIRE 16 -16 -96 -16
WIRE -96 0 -96 -16
WIRE 144 0 144 -48
WIRE 432 16 432 -48
WIRE 0 48 -96 48
WIRE 144 48 0 48
WIRE -144 112 -144 80
WIRE -144 112 -304 112
WIRE 0 112 0 48
WIRE -304 128 -304 112
WIRE -144 144 -144 112
WIRE 96 144 96 16
WIRE 96 144 -144 144
WIRE 144 160 144 96
WIRE -96 192 -96 96
WIRE 144 208 64 208
WIRE 0 240 -96 240
WIRE 64 240 64 208
WIRE 64 240 0 240
WIRE -176 272 -256 272
WIRE -144 272 -176 272
WIRE 96 272 96 240
WIRE 624 272 96 272
WIRE -256 288 -256 272
WIRE 48 288 -96 288
WIRE 144 288 144 256
WIRE 144 288 48 288
WIRE 0 336 0 240
WIRE -256 448 -256 368
WIRE -176 448 -176 272
WIRE 624 448 624 272
WIRE 624 448 -176 448
WIRE 48 464 48 288
WIRE 320 464 48 464
WIRE 320 592 320 464
WIRE 512 592 320 592
WIRE 240 608 64 608
WIRE -400 624 -400 -432
WIRE -96 624 -400 624
WIRE -96 656 -96 624
WIRE 240 656 240 608
WIRE 240 656 144 656
WIRE 464 656 240 656
WIRE 240 720 240 656
WIRE 256 720 240 720
WIRE 512 720 512 592
WIRE 320 768 256 768
WIRE 592 768 512 768
WIRE -96 800 -96 736
WIRE 64 800 64 608
WIRE 64 800 -96 800
WIRE 144 800 144 656
WIRE 208 800 144 800
WIRE 320 800 320 768
WIRE 320 800 256 800
WIRE 464 800 464 656
WIRE 592 800 592 768
WIRE 592 800 512 800
FLAG -288 32 0
FLAG -304 208 0
FLAG -256 528 0
FLAG 320 -480 0
FLAG 0 112 0
FLAG 0 336 0
FLAG 432 80 0
FLAG 256 816 0
FLAG 512 816 0
SYMBOL nmos4 -144 192 R0
SYMATTR InstName M1
SYMATTR Value CMOSN
SYMATTR Value2 l=1u w=879u
SYMBOL nmos4 96 160 R0
SYMATTR InstName M2
SYMATTR Value CMOSN
SYMATTR Value2 l=1u w=879u
SYMBOL nmos4 -144 0 R0
WINDOW 3 46 63 Left 2
SYMATTR Value CMOSN
SYMATTR InstName M3
SYMATTR Value2 l=1u w=879u
SYMBOL nmos4 96 96 M180
SYMATTR InstName M4
SYMATTR Value CMOSN
SYMATTR Value2 l=1u w=879u
SYMBOL voltage -288 -64 R0
WINDOW 123 0 0 Left 0
WINDOW 39 0 0 Left 0
SYMATTR InstName V1
SYMATTR Value -.5
SYMBOL voltage -304 112 R0
WINDOW 123 0 0 Left 0
WINDOW 39 0 0 Left 0
SYMATTR InstName V2
SYMATTR Value .9
SYMBOL voltage -256 272 R0
WINDOW 123 0 0 Left 0
WINDOW 39 0 0 Left 0
SYMATTR InstName V3
SYMATTR Value 1
SYMBOL voltage -256 432 R0
WINDOW 123 24 124 Left 2
WINDOW 39 0 0 Left 0
SYMATTR Value2 AC 1
SYMATTR InstName V4
SYMATTR Value SINE(0 0.15 1meg 0 0 180)
SYMBOL voltage 320 -576 R0
WINDOW 123 0 0 Left 0
WINDOW 39 0 0 Left 0
SYMATTR InstName V6
SYMATTR Value 1.8
SYMBOL pmos4 -144 -384 R0
SYMATTR InstName M5
SYMATTR Value CMOSP
SYMATTR Value2 l=1u w=400u
SYMBOL pmos4 -144 -176 R0
SYMATTR InstName M6
SYMATTR Value CMOSP
SYMATTR Value2 l=1u w=400u
SYMBOL pmos4 96 -192 R0
SYMATTR InstName M7
SYMATTR Value CMOSP
SYMATTR Value2 l=1u w=400u
SYMBOL pmos4 96 -384 R0
SYMATTR InstName M8
SYMATTR Value CMOSP
SYMATTR Value2 l=1u w=400u
SYMBOL cap 416 16 R0
SYMATTR InstName C1
SYMATTR Value 10p
SYMBOL nmos4 464 720 R0
SYMATTR InstName M9
SYMATTR Value CMOSN
SYMATTR Value2 l=1u w=1758
SYMBOL nmos4 208 720 R0
SYMATTR InstName M10
SYMATTR Value CMOSN
SYMATTR Value2 l=1u w=1758
SYMBOL current -96 656 R0
WINDOW 123 0 0 Left 0
WINDOW 39 0 0 Left 0
SYMATTR InstName I2
SYMATTR Value 2m
TEXT 928 -656 Left 2 !.lib C:\\Users\\91934\\Desktop\\tsmc018.lib.txt
TEXT 944 -584 Left 2 !;op
TEXT 936 -520 Left 2 !.ac dec 10 10 10000000
